
#######################################################################
#
#                 Cambridge Crystallographic Data Centre
#                                CCDC
#
#######################################################################
#
# If this CIF has been generated from an entry in the Cambridge
# Structural Database, then it will include bibliographic, chemical,
# crystal, experimental, refinement or atomic coordinate data resulting
# from the CCDC's data processing and validation procedures.
#
#######################################################################

data_ACSALA23
_symmetry_cell_setting           monoclinic
_symmetry_space_group_name_H-M   'P 21/c'
_symmetry_Int_Tables_number      14
_space_group_name_Hall           '-P 2ybc'
loop_
_symmetry_equiv_pos_site_id
_symmetry_equiv_pos_as_xyz
1 x,y,z
2 -x,1/2+y,1/2-z
3 -x,-y,-z
4 x,1/2-y,1/2+z
_cell_length_a                   16.74138(40)
_cell_length_b                   4.79496(11)
_cell_length_c                   23.80212(83)
_cell_angle_alpha                90
_cell_angle_beta                 111.0816(32)
_cell_angle_gamma                90
_cell_volume                     1782.81
loop_
_atom_site_label
_atom_site_type_symbol
_atom_site_fract_x
_atom_site_fract_y
_atom_site_fract_z
_atom_site_U_iso_or_equiv
_atom_site_thermal_displace_type
C1 C 0.94312(21) 1.1375(14) 0.87289(16) 0.0949 Uiso
C2 C 0.98860(71) 0.9377(23) 0.85489(46) 0.0949 Uiso
C3 C 0.96664(72) 0.8123(24) 0.79888(49) 0.0949 Uiso
C4 C 0.89336(75) 0.8984(26) 0.75987(56) 0.0949 Uiso
C5 C 0.84342(73) 1.1048(24) 0.77533(51) 0.0949 Uiso
C6 C 0.86584(17) 1.22214(99) 0.82934(27) 0.0949 Uiso
C7 C 0.96887(74) 1.2661(28) 0.93367(51) 0.0949 Uiso
C8 C 1.13675(83) 0.9411(31) 0.91445(65) 0.1659 Uiso
C9 C 1.19070(69) 0.7806(26) 0.97037(52) 0.1659 Uiso
O1 O 0.90919(76) 1.4326(24) 0.93739(52) 0.0949 Uiso
O2 O 1.04190(82) 1.2235(26) 0.97402(56) 0.0949 Uiso
O3 O 1.06325(78) 0.8246(27) 0.89712(63) 0.1659 Uiso
O4 O 1.14601(98) 1.1262(34) 0.88455(68) 0.1659 Uiso
H1 H 0.9996(18) 0.6723(60) 0.78848(98) 0.1424 Uiso
H2 H 0.8756(14) 0.8179(53) 0.7210(11) 0.1424 Uiso
H3 H 0.7921(13) 1.1619(54) 0.74584(97) 0.1424 Uiso
H4 H 0.8319(11) 1.3559(48) 0.83810(86) 0.1424 Uiso
H5 H 1.1840(20) 0.5784(58) 0.9629(13) 0.2489 Uiso
H6 H 1.1714(16) 0.8249(63) 1.0037(10) 0.2489 Uiso
H7 H 1.2494(19) 0.8346(64) 0.9810(13) 0.2489 Uiso
H8 H 0.9274(13) 1.5418(50) 0.9718(13) 0.1424 Uiso
C10 C 0.42457(65) 0.3088(14) 0.60107(41) 0.1094 Uiso
C11 C 0.45949(23) 0.52146(72) 0.64247(17) 0.1094 Uiso
C12 C 0.42323(51) 0.6086(15) 0.68271(50) 0.1094 Uiso
C13 C 0.34896(76) 0.4853(28) 0.68283(51) 0.1094 Uiso
C14 C 0.31282(74) 0.2739(24) 0.64147(49) 0.1094 Uiso
C15 C 0.35110(62) 0.1958(23) 0.60381(44) 0.1094 Uiso
C16 C 0.45815(75) 0.1922(28) 0.55611(55) 0.1094 Uiso
C17 C 0.60700(18) 0.54216(84) 0.66327(15) 0.1237 Uiso
C18 C 0.67215(18) 0.69491(81) 0.64598(19) 0.1237 Uiso
O5 O 0.40874(76) -0.0006(27) 0.52332(53) 0.1094 Uiso
O6 O 0.52811(89) 0.2549(26) 0.55033(57) 0.1094 Uiso
O7 O 0.52990(15) 0.67356(48) 0.64115(17) 0.1237 Uiso
O8 O 0.61787(20) 0.33236(59) 0.69250(21) 0.1237 Uiso
H9 H 0.4489(15) 0.7613(63) 0.70979(95) 0.1640 Uiso
H10 H 0.3236(14) 0.5517(55) 0.7102(10) 0.1640 Uiso
H11 H 0.2625(15) 0.1847(49) 0.64086(98) 0.1640 Uiso
H12 H 0.3250(13) 0.0535(54) 0.5776(11) 0.1640 Uiso
H13 H 0.6643(19) 0.8969(58) 0.6507(13) 0.1855 Uiso
H14 H 0.6614(18) 0.6673(66) 0.6028(10) 0.1855 Uiso
H15 H 0.7302(16) 0.6394(54) 0.6701(13) 0.1855 Uiso
H16 H 0.4327(15) -0.0695(56) 0.4966(12) 0.1640 Uiso

#END
