#############################################################
#             ______       _    _          _   	            #
#            (_____ \     \ \  / /        | |               #
#             _____) )   _ \ \/ / |_  ____| |  	            #
#            |  ____/ | | | )  (|  _)/ _  | | 	            #
#            | |    | |_| |/ /\ \ |_( (_| | |___            #
#            |_|     \__  /_/  \_\___)__|_|_____)           #
#                   (____/                                  #
#---------------------(version    0.3.9)--------------------#
#       A Python package for random crystal generation      #
#       url: https://github.com/qzhu2017/pyxtal             #
#       @Zhu's group at University of Nevada Las Vegas      #
#############################################################
data_from_pyxtal
#Energy: -40.83618125 eV/cell

_symmetry_space_group_name_H-M 'P21/n'
_symmetry_Int_Tables_number                   14
_symmetry_cell_setting                monoclinic
_cell_length_a            7.100740
_cell_length_b           13.211492
_cell_length_c           13.118566
_cell_angle_alpha        90.000000
_cell_angle_beta         83.804168
_cell_angle_gamma        90.000000
_cell_volume           1223.482166

loop_
 _symmetry_equiv_pos_site_id
 _symmetry_equiv_pos_as_xyz
1 'x, y, z'
2 '-x+1/2, y+1/2, -z+1/2'
3 '-x, -y, -z'
4 'x+1/2, -y+1/2, z+1/2'

loop_
 _atom_site_label
 _atom_site_type_symbol
 _atom_site_symmetry_multiplicity
 _atom_site_fract_x
 _atom_site_fract_y
 _atom_site_fract_z
 _atom_site_occupancy
C      C        4     0.596000    0.210000    0.477000 1
C      C        4     0.754000    0.211000    0.547000 1
C      C        4     0.717000    0.257000    0.644000 1
C      C        4     0.853000    0.259000    0.713000 1
C      C        4     1.030000    0.214000    0.686000 1
C      C        4     1.068000    0.166000    0.591000 1
C      C        4     0.933000    0.165000    0.519000 1
C      C        4     0.985000    0.114000    0.417000 1
O      O        4     0.902000    0.121000    0.340000 1
O      O        4     1.151000    0.065000    0.407000 1
H      H        4     0.562000    0.132000    0.456000 1
H      H        4     0.465000    0.244000    0.515000 1
H      H        4     0.636000    0.253000    0.407000 1
H      H        4     0.579000    0.291000    0.666000 1
H      H        4     0.822000    0.295000    0.787000 1
H      H        4     1.136000    0.215000    0.740000 1
H      H        4     1.205000    0.131000    0.573000 1
H      H        4     1.157000    0.038000    0.336000 1
C      C        4     0.532000    0.974000    0.285000 1
C      C        4     0.411000    0.955000    0.199000 1
N      N        4     0.232000    0.988000    0.213000 1
C      C        4     0.133000    0.972000    0.136000 1
N      N        4     0.185000    0.931000    0.045000 1
C      C        4     0.364000    0.899000    0.032000 1
C      C        4     0.484000    0.909000    0.108000 1
N      N        4    -0.044000    1.007000    0.149000 1
H      H        4     0.457000    0.954000    0.360000 1
H      H        4     0.662000    0.930000    0.275000 1
H      H        4     0.571000    1.054000    0.287000 1
H      H        4     0.414000    0.867000   -0.043000 1
H      H        4     0.630000    0.884000    0.096000 1
H      H        4    -0.068000    1.053000    0.210000 1
H      H        4    -0.093000    1.027000    0.082000 1
#END

